6
Properties=species:S:1:pos:R:3:forces:R:3 pbc="F F F"
C        0.02703457       0.03218687      -6.17220859       0.00219217       0.00157192      -0.00383615
H        0.00820655       1.04013587      -6.59844041      -0.00081835       0.00275528      -0.00370705
H       -0.88358600      -0.50351605      -6.45908101       0.00222880       0.00157005       0.00686766
H        0.90244033      -0.50710278      -6.54760332       0.00137618      -0.00159791      -0.00131258
I       -0.20228408      -0.43172811     -11.78058509       0.00000000       0.00000000       0.00000000
Br       0.09212981       0.12104942      -4.78756419      -0.00497881      -0.00429930       0.00198817
