6
Properties=species:S:1:pos:R:3:forces:R:3 pbc="F F F"
C        0.00251552      -0.02624029      -6.57667600      -0.00013027       0.00092973       0.00254868
H        0.00199423       1.02720005      -6.32771799       0.00018169      -0.00006774       0.00036945
H       -0.89246302      -0.51529633      -6.21382271       0.00290820      -0.00028293      -0.00026814
H        0.89456018      -0.51595208      -6.20751581      -0.00306410       0.00000438      -0.00053467
I        0.00989847      -0.18734937      -8.70320871       0.00010442      -0.00058347      -0.00211530
Br       0.04497709       0.50324672      -0.05895605       0.00000000       0.00000000       0.00000000
